test/test_files/validation_tests/case1888rte_resqlim.m
function mpc = case1888rte_resqlim
%CASE1888RTE_RESQLIM

%% MATPOWER Case Format : Version 2
mpc.version = '2';

%%-----  Power Flow Data  -----%%
%% system MVA base
mpc.baseMVA = 100;

%% bus data
%    bus_i    type    Pd    Qd    Gs    Bs    area    Vm    Va    baseKV    zone    Vmax    Vmin
mpc.bus = [
    1    1    5.8    -5.8    0    0    1    1.03149163    -43.3675174    225    1    1.08889    0.888889;
    2    1    0    0    0    0    1    1.05213443    -1.58021084    380    1    1.10263    1.04841;
    3    1    142.5    -13.4    0    0    1    1.0448891    -18.1420941    225    1    1.08444    1.00444;
    4    1    0    0    0    0    1    1.06460828    -20.4689352    150    1    1.10667    0.9;
    5    1    32.8    -5.3    0    0    1    1.06161043    -24.8507219    225    1    1.08889    0.933333;
    6    1    40.2    4    0    0    1    1.06056888    -25.1617261    225    1    1.08889    0.933333;
    7    1    0    0    0    0    1    1.05381797    -21.3323212    380    1    1.10526    1.03947;
    8    1    0    0    0    0    1    1.0570919    -22.4675375    380    1    1.10526    1.03947;
    9    1    0    0    0    0    1    1.04786355    -36.3970081    225    1    1.09035    1.00444;
    10    1    148.8    14.9    0    0    1    1.04436982    -29.0903983    225    1    1.08889    0.933333;
    11    1    25.6    5    0    0    1    1.04319522    -40.7450247    225    1    1.08889    1.00444;
    12    1    39.1    8.7    0    0    1    1.02281156    -40.2648947    225    1    1.08889    1.00444;
    13    1    70.5    17.2    0    0    1    1.04318002    -40.7421627    225    1    1.08889    1.00444;
    14    1    36    -4.2    0    0    1    1.0289425    -42.4749474    225    1    1.08252    0.95;
    15    1    0    0    0    0    1    1.05264347    -32.7088442    225    1    1.08889    1.00444;
    16    1    0    0    0    0    1    1.05264387    -32.708847    225    1    1.08889    1.00444;
    17    1    23.7    -12.4    0    0    1    1.02901437    -42.5023097    225    1    1.08889    0.888889;
    18    1    5.9    -4.8    0    0    1    1.03827601    -34.6970689    225    1    1.09633    0.986667;
    19    1    34    3.7    0    0    1    1.03589146    -40.8500992    225    1    1.08889    1.00444;
    20    1    6.9    0.8    0    0    1    1.03591807    -40.8478005    225    1    1.08889    1.00444;
    21    1    9.2    -29.1    0    0    1    1.04563987    -37.6047209    225    1    1.08889    1.00444;
    22    1    67.7    -3.6    0    0    1    1.04521346    -37.8894223    225    1    1.08889    0.986667;
    23    1    25.4    -2.7    0    0    1    1.02131978    -46.730156    225    1    1.08889    0.888889;
    25    1    64    4.6    0    0    1    1.05346427    -16.835331    225    1    1.08444    1.00889;
    27    1    71.6    46.7    0    0    1    1.02094819    -19.7644247    225    1    1.08889    0.933333;
    28    1    105.4    6.9    0    0    1    1.03730412    -35.7522349    225    1    1.08889    1.00444;
    29    1    0    0    0    0    1    1.05210077    -1.566598    380    1    1.10526    1.04842;
    30    1    0    0    0    0    1    1.05212953    -1.55022945    380    1    1.10526    1.04842;
    31    1    21.7    0.9    0    0    1    1.04898477    -4.90798084    225    1    1.08444    1.00889;
    33    1    68.9    2.6    0    0    1    1.03244032    -5.69542552    225    1    1.08444    1.00889;
    34    1    50.6    12.7    0    0    1    1.04308522    -40.6595352    225    1    1.08889    1.00444;
    35    1    17    2.1    0    0    1    1.02291816    -21.4877862    150    1    1.08    0.966667;
    36    1    38.2    6.3    0    0    1    1.06252588    -30.6212131    225    1    1.09212    1;
    37    1    0    0    0    0    1    1.07001704    -28.1934821    380    1    1.10526    1.04785;
    38    1    89    9.6    0    0    1    1.04383991    -38.0363153    225    1    1.08889    0.986667;
    2050    1    0    0    0    -64    1    1.02504433    -43.0556919    20    1    1.5    0.8;
    39    1    70.9    -2.3    0    0    1    1.02894327    -42.234342    225    1    1.08889    0.968889;
    40    1    136.2    -10.7    0    0    1    1.03444675    -38.6903423    380    1    1.10526    1;
    41    1    64.6    17.3    0    0    1    1.04164621    -27.2064586    225    1    1.08889    0.933333;
    42    1    13.4    3.3    0    0    1    1.02663724    -46.4980898    225    1    1.08889    0.888889;
    43    1    33.3    4.7    0    0    1    1.02646287    -46.5422228    225    1    1.08889    0.888889;
    44    1    211.6    -1.3    0    0    1    1.05488026    -26.0064292    225    1    1.08496    1.00444;
    45    1    92.1    -9.1    0    0    1    1.04812718    -38.8055737    225    1    1.08889    1.00444;
    46    1    0    0    0    0    1    1.04397627    -7.667229    150    1    1.10843    0.9;
    47    1    0    0    0    0    1    1.02636464    -41.1868622    225    1    1.08889    1.00444;
    48    1    0    0    0    0    1    1.02636443    -41.186861    225    1    1.08889    1.00444;
    49    1    63.7    84.5    0    -80    1    1.0263632    -41.1868541    225    1    1.08889    1.00444;
    50    1    10.4    6.6    0    0    1    1.03639131    -36.094559    225    1    1.08889    1.00444;
    51    1    0    0    0    0    1    1.05601966    -17.3148196    225    1    1.08889    1;
    52    1    68.7    16.5    0    0    1    1.01896568    -46.7935632    225    1    1.08889    0.888889;
    53    1    101.2    15.9    0    0    1    1.01034055    -45.4421283    225    1    1.08889    0.968889;
    54    1    0    0    0    0    1    1.01362655    -43.2687087    380    1    1.10526    1;
    55    1    28.9    10.6    0    0    1    1.02703203    -5.00841077    225    1    1.08444    1.00889;
    56    1    28.2    2.1    0    0    1    1.0272218    -5.00982858    225    1    1.08444    1.00889;
    1827    1    109.6    -12.9    0    0    1    1.04261168    -34.5324218    225    1    1.08889    1.00444;
    57    1    27.3    -10.9    0    0    1    1.05370138    -20.2352558    225    1    1.08945    0.933333;
    58    2    0    0    0    0    1    1.04265822    -7.87956214    150    1    1.10862    0.9;
    59    1    36.8    20.3    0    0    1    1.02318107    -1.9375651    225    1    1.08444    1.00889;
    60    1    36.5    30.8    0    0    1    1.02300961    -1.9354791    225    1    1.08444    1.00889;
    61    1    0    0    0    0    1    1.02490933    -2.79033379    225    1    1.08889    0.977778;
    62    1    8.4    -0.3    0    0    1    1.02838672    -44.7194122    225    1    1.08889    0.888889;
    63    1    13.2    -6.3    0    0    1    1.06745252    -26.3029701    225    1    1.08889    0.933333;
    64    1    13.2    3.3    0    0    1    1.02235756    -40.4018984    225    1    1.08889    1.00444;
    65    1    22.7    2.5    0    0    1    1.04797426    -36.4472029    225    1    1.08889    1.00444;
    66    1    11.4    -9.7    0    0    1    1.05842771    -17.583451    225    1    1.08889    1;
    67    1    10.2    -1.3    0    0    1    1.03887727    -32.5897756    225    1    1.08889    0.986667;
    68    1    0    0    0    0    1    1.02951004    -46.1084457    225    1    1.08889    0.888889;
    69    1    0    0    0    0    1    1.0234278    -46.3000686    225    1    1.08889    0.888889;
    70    1    0    0    0    0    1    1.03180004    -44.3353921    380    1    1.10526    1.01316;
    71    1    39.2    2.8    0    0    1    1.03661908    -40.966597    225    1    1.08889    1.00444;
    72    1    19.3    3.3    0    -80    1    1.03559859    -39.9361913    225    1    1.08889    1.00444;
    73    1    0    0    0    0    1    1.0434905    -5.2555887    225    1    1.08889    0.977778;
    74    1    0    0    0    0    1    1.04349983    -5.25490561    225    1    1.08889    0.977778;
    75    1    131.9    3.2    0    0    1    1.04179096    -5.73677267    225    1    1.08444    1.00889;
    76    1    0    0    0    0    1    1.05130163    -21.4416283    225    1    1.08444    1.00444;
    77    1    0    0    0    0    1    1.04794226    -16.5296935    380    1    1.10263    1.04211;
    78    1    94.6    -1.9    0    0    1    1.0512112    -21.49104    225    1    1.08444    1.00444;
    79    1    -1.7    -4.6    0    0    1    1.02330959    -40.169183    225    1    1.08936    1.00444;
    80    1    3.6    -7.2    0    0    1    1.02330982    -40.1732719    225    1    1.08936    1.00444;
    81    1    35.4    10.9    0    0    1    1.03217476    -41.3633313    225    1    1.08889    0.888889;
    82    1    15.1    0.7    0    0    1    1.02481772    -44.9032285    225    1    1.08124    0.95;
    83    1    57.4    18    0    0    1    1.01752803    -46.0917779    225    1    1.08889    0.888889;
    84    1    89.9    -5.8    0    0    1    1.05149311    -18.3901143    225    1    1.08889    1;
    85    1    0    0    0    0    1    1.03004262    -16.2480689    225    1    1.08889    1;
    86    1    239.8    17.5    0    0    1    1.06824054    -16.2353387    380    1    1.10526    1.0507;
    87    1    35.5    16    0    0    1    1.04626889    -13.8764192    225    1    1.08889    1;
    88    1    76.1    23    0    0    1    1.05831898    -17.4960379    225    1    1.08889    1;
    89    3    0    0    0    0    1    1.02    -11.960426    150    1    1.1    0.9;
    90    1    21.3    12    0    0    1    1.01554751    -34.5539712    225    1    1.08889    0.986667;
    91    1    11.2    -5.2    0    0    1    1.04427272    -9.08221447    225    1    1.08444    1.00889;
    92    1    0    0    0    0    1    1.04784092    -30.2367112    380    1    1.10526    1.04211;
    93    1    0    0    0    0    1    1.0481967    -30.6621744    380    1    1.10526    1.04211;
    96    1    11.7    1.3    0    0    1    1.05286051    -18.2440466    225    1    1.08889    1;
    97    1    6.1    1.4    0    0    1    1.05271543    -33.9923058    225    1    1.08889    1.00444;
    98    1    31.6    2.6    0    0    1    1.03181127    -10.5929331    150    1    1.1    0.9;
    99    1    68.9    -11.7    0    0    1    1.05394154    -19.9369797    225    1    1.08889    1;
    100    2    0.2    -0    0    0    1    1.036    -40.8885018    225    1    1.08294    0.95;
    101    1    0    0    0    0    1    1.06131031    -24.9291746    225    1    1.08889    0.933333;
    102    1    0    0    0    0    1    1.05731574    -22.4273902    380    1    1.10526    1.03947;
    103    1    0    0    0    0    1    1.05391109    -21.2988702    380    1    1.10526    1.03947;
    104    1    0    0    0    0    1    1.04342757    -40.7302439    225    1    1.08889    1.00444;
    1828    1    30.1    3.8    0    0    1    1.03331769    -41.8825332    225    1    1.08889    1.00444;
    105    1    0    0    0    0    1    1.01538029    -36.9152058    225    1    1.08889    0.986667;
    106    1    12.1    4.5    0    0    1    1.04327505    -40.7385575    225    1    1.08889    1.00444;
    107    1    106.1    -0.3    0    0    1    1.03320289    -24.2898181    225    1    1.08889    0.933333;
    108    1    0    0    0    0    1    1.0448744    -22.4544501    380    1    1.10526    1.03947;
    109    1    43.3    8.4    0    0    1    1.05395426    -16.7483392    225    1    1.08889    1;
    110    1    33.2    -7.5    0    0    1    1.0497314    -38.3098672    225    1    1.08986    1.00444;
    111    1    99.5    -12.4    0    0    1    1.07187347    -24.2230025    225    1    1.09612    1;
    112    1    116.4    -6.7    0    0    1    1.03631565    -35.6761376    225    1    1.08889    0.986667;
    113    1    65.7    14.7    0    0    1    1.04784365    -36.394606    225    1    1.09036    1.00444;
    114    1    107.2    21.2    0    0    1    1.01859116    -46.8607431    225    1    1.08889    0.924444;
    115    1    56.9    -2.7    0    0    1    1.04477565    -31.8374046    225    1    1.09614    0.986667;
    117    1    0    0    0    0    1    1.04948438    -30.7128556    380    1    1.10526    1.03947;
    119    1    123.6    -19.8    0    0    1    1.02696095    -29.3757112    225    1    1.08444    1.00444;
    2051    1    0    0    0    -64    1    1.0016469    -16.0654162    20    1    1.4    0.8;
    120    1    33.3    -21.3    0    0    1    1.05171148    -15.7802148    225    1    1.08444    1.00889;
    121    1    0    0    0    0    1    1.0481404    -13.4548026    380    1    1.10263    1.02895;
    122    1    1.7    -4.4    0    0    1    1.03374421    -24.3062831    225    1    1.08889    0.933333;
    123    1    140.3    17.3    0    0    1    1.02449419    -20.4926529    225    1    1.08889    0.933333;
    124    1    33.7    -1.8    0    0    1    1.07479417    -28.1246055    63    1    1.07937    0.920635;
    125    2    0    0    0    0    1    1.034    -10.8954764    225    1    1.07476    0.95;
    126    1    -1.9    -5.4    0    0    1    1.05903715    -9.5480852    225    1    1.09768    1;
    127    1    0    0    0    0    1    1.05356985    -9.51277117    380    1    1.10526    1.05263;
    128    1    0    0    0    0    1    1.05362495    -9.50917199    380    1    1.10526    1.05263;
    129    1    0    0    0    0    1    1.05363144    -9.5056895    380    1    1.10526    1.05263;
    130    1    0    0    0    0    1    1.05364976    -9.52130737    380    1    1.10526    1.05263;
    131    1    0    0    0    0    1    1.04462519    -31.7557312    225    1    1.09645    0.986667;
    132    1    0    0    0    0    1    1.04465297    -31.7280286    225    1    1.09645    0.986667;
    133    1    0    0    0    0    1    1.04942068    -30.6434664    380    1    1.10526    1.03947;
    134    1    77.3    -10.6    0    0    1    1.02932249    -43.6280236    225    1    1.08889    0.968889;
    135    1    28.1    3.8    0    0    1    1.05327575    -16.799144    225    1    1.08444    1.00889;
    136    1    -5.2    -9.4    0    0    1    1.04792249    -34.4221064    380    1    1.10526    1.03947;
    137    1    106.4    8    0    0    1    1.04092407    -18.1798702    225    1    1.08889    0.933333;
    138    1    0    0    0    0    1    1.04031882    -14.4962169    380    1    1.10526    1.03947;
    140    1    113.7    -8.3    0    0    1    1.04791042    -5.69239152    225    1    1.08444    1.00889;
    141    1    44.6    0.5    0    0    1    1.04719648    -5.47817587    225    1    1.08444    1.00889;
    142    1    165.2    -11.8    0    0    1    1.03830879    -17.1644561    225    1    1.08444    1.00444;
    143    1    29.2    2.1    0    0    1    1.04359366    -18.5809931    225    1    1.08889    0.933333;
    144    1    32.8    4.4    0    0    1    1.04356804    -18.5855086    225    1    1.08889    0.933333;
    145    1    19    -18.1    0    0    1    1.04972184    -38.2934711    225    1    1.08952    1.00444;
    146    1    0    0    0    0    1    1.04910574    -19.5882757    225    1    1.09478    1;
    147    1    0    0    0    0    1    1.04910381    -19.5882538    225    1    1.09478    1;
    148    1    37.1    5.6    0    0    1    1.05152992    -18.1060012    225    1    1.08889    1;
    149    1    20    -3.9    0    0    1    1.05270783    -33.917194    225    1    1.08889    1.00444;
    150    1    38.1    1.6    0    0    1    1.03634314    -9.17911438    225    1    1.08444    1.00889;
    151    1    24.8    -1.8    0    0    1    1.05060247    -18.9297558    225    1    1.08889    1;
    152    1    0    0    0    0    1    1.04392701    -10.8958056    225    1    1.08444    1.00889;
    153    1    0    0    0    0    1    1.04391586    -10.8986883    225    1    1.08444    1.00889;
    154    1    0    0    0    0    1    1.04319376    -6.10198277    225    1    1.08444    1.00889;
    155    1    0    0    0    0    1    1.04540187    -4.74377433    380    1    1.10263    1.02895;
    156    1    155.3    26.5    0    0    1    1.01779193    -46.0063433    225    1    1.08889    0.888889;
    157    1    0    0    0    0    1    1.05902294    -9.54794103    225    1    1.09766    1;
    158    1    0    0    0    0    1    1.05361111    -9.58719325    380    1    1.10526    1.05263;
    159    1    21.5    4.4    0    0    1    1.0381037    -33.594026    225    1    1.08889    0.986667;
    160    1    26.2    2.1    0    0    1    1.05367746    -17.8623115    225    1    1.08889    1;
    161    1    0    0    0    0    1    1.05125719    -33.675527    225    1    1.08444    1.00444;
    162    1    0    0    0    0    1    1.05125719    -33.675527    225    1    1.08444    1.00444;
    163    1    0    0    0    0    1    1.05126456    -33.6757238    225    1    1.08444    1.00444;
    164    1    55.3    -11.4    0    0    1    1.05125615    -33.6754992    225    1    1.08444    1.00444;
    165    1    0    0    0    0    1    1.02156758    -19.7156694    225    1    1.08889    0.933333;
    166    1    30    12.3    0    0    1    1.02862439    -28.8364099    225    1    1.08889    0.986667;
    2019    1    0    0    0    -64    1    0.961484815    -20.1227928    20    1    1.4    0.9;
    167    1    0    0    0    0    1    1.04533186    -19.5190684    225    1    1.08941    1;
    168    1    0    0    0    0    1    1.04982078    -15.7709814    380    1    1.10526    1.05263;
    169    2    0    0    0    0    1    1.065    -24.7751527    225    1    1.1    0.9;
    170    1    17.8    2.6    0    0    1    1.02144124    -22.1402371    150    1    1.08    0.966667;
    171    1    25.3    -3.2    0    0    1    1.03619829    -40.7620055    225    1    1.08889    1.00444;
    172    1    -3.7    -2    0    0    1    1.03651611    -40.7122958    225    1    1.08889    1.00444;
    173    1    37.3    0.7    0    0    1    1.01494279    -46.2174609    225    1    1.08889    0.888889;
    181    1    107.9    3.9    0    0    1    1.05060487    -18.9077529    225    1    1.08889    1;
    182    1    29.5    6.8    0    0    1    1.03297881    -36.2340634    225    1    1.08889    0.986667;
    183    1    0    0    0    0    1    1.04360773    -13.7962022    380    1    1.10526    1.03947;
    184    1    0    0    0    0    1    1.04014471    -13.6070201    380    1    1.10526    1.03947;
    185    1    0    0    0    0    1    1.04016292    -13.610669    380    1    1.10526    1.03947;
    186    1    0    0    0    0    1    1.04359917    -13.80711    380    1    1.10526    1.03947;
    187    1    28.1    -10    0    0    1    1.0315124    -45.2659381    225    1    1.08889    0.924444;
    188    1    -2    -1.1    0    0    1    1.0449726    -37.4746598    225    1    1.08889    0.986667;
    189    1    65.8    19.1    0    0    1    1.03676861    -31.409658    225    1    1.08444    1.00444;
    190    1    -2.3    1.2    0    0    1    1.04291107    -25.3707921    380    1    1.10263    1.04211;
    191    1    -2.3    1.4    0    0    1    1.04296999    -25.3756272    380    1    1.10263    1.04211;
    192    1    0    0    0    0    1    1.03637163    -41.1081873    225    1    1.08889    1.00444;
    193    1    0    0    0    0    1    1.04662996    -6.09615691    225    1    1.08889    0.977778;
    194    1    0    0    0    0    1    1.04662996    -6.09615691    225    1    1.08889    0.977778;
    195    1    83.6    -8.6    0    0    1    1.02847519    -44.2133279    225    1    1.08889    0.968889;
    196    1    0    0    0    0    1    1.03412094    -7.56888183    225    1    1.08889    0.933333;
    197    1    0    0    0    0    1    1.03309597    -8.03724246    225    1    1.08889    0.933333;
    198    1    57.5    10.2    0    0    1    1.04153343    -25.939593    225    1    1.08444    1.00444;
    199    1    177.4    -31.4    0    0    1    1.05217173    -21.8417118    225    1    1.08444    1.00444;
    200    1    0    0    0    0    1    1.03769166    -6.49219905    225    1    1.08889    0.977778;
    201    1    0    0    0    0    1    1.04243207    -24.8157018    225    1    1.08444    1.00444;
    202    1    124.2    -3.2    0    0    1    1.03200988    -44.1095305    225    1    1.08889    0.951111;
    203    1    35.3    1.9    0    0    1    1.0360842    -39.8966408    225    1    1.08889    1.00444;
    204    1    51.6    -4    0    0    1    1.04470098    -37.3761953    225    1    1.08889    0.986667;
    2086    1    0    0    0    -64    1    0.996674461    -16.6140682    20    1    1.4    0.8;
    205    1    16.9    -1.8    0    0    1    1.04515382    -16.1925319    225    1    1.08444    1.00889;
    206    1    0    0    0    0    1    1.04773566    -14.2864767    380    1    1.10263    1.02895;
    207    1    38.6    -0.7    0    0    1    1.03612046    -40.0054288    225    1    1.08889    1.00444;
    1829    2    0    0    0    0    1    1.022    -44.2230584    225    1    1.07859    0.95;
    208    1    0    0    0    0    1    1.02199256    -44.2230338    225    1    1.08889    0.888889;
...
];

%% generator data
%    bus    Pg    Qg    Qmax    Qmin    Vg    mBase    status    Pmax    Pmin    Pc1    Pc2    Qc1min    Qc1max    Qc2min    Qc2max    ramp_agc    ramp_10    ramp_30    ramp_q    apf
mpc.gen = [
    1268    44.5    1.01567172    27    -9    1.027    100    1    45    44    0    0    0    0    0    0    0    0    0    0    0;
    1268    44.5    1.01567172    27    -9    1.027    100    1    45    44    0    0    0    0    0    0    0    0    0    0    0;
    1356    21    -7.49504924    7    -12    1.046    100    1    22    4.4    0    0    0    0    0    0    0    0    0    0    0;
    89    23.9386488    -4.74008117    13    -9    1.02    100    1    25    5    0    0    0    0    0    0    0    0    0    0    0;
    125    22    1.79914876    8    -17    1.034    100    1    23.4    4.68    0    0    0    0    0    0    0    0    0    0    0;
    908    19    1.9    2    1.9    1.035    100    1    20    4    0    0    0    0    0    0    0    0    0    0    0;
    817    0    0    1    0.9    1.039    100    0    12    2.4    0    0    0    0    0    0    0    0    0    0    0;
    817    13    0.9    1    0.9    1.039    100    1    14    2.8    0    0    0    0    0    0    0    0    0    0    0;
    817    0    0    1    0.9    1.039    100    0    12    2.4    0    0    0    0    0    0    0    0    0    0    0;
    1335    28    -2.50559673    10    -10    1.021    100    1    30    6    0    0    0    0    0    0    0    0    0    0    0;
    396    10    4.32211596    5    1    1.015    100    1    11    2.2    0    0    0    0    0    0    0    0    0    0    0;
    396    10    4.32211596    5    1    1.015    100    1    11    2.2    0    0    0    0    0    0    0    0    0    0    0;
    975    7    -15    15    -15    1.05    100    1    35    7    0    0    0    0    0    0    0    0    0    0    0;
    858    16.92    0    0    0    1.048    100    1    55.4    11.08    0    0    0    0    0    0    0    0    0    0    0;
    921    40    4.88109576    25    -20    1.045    100    1    42    8.4    0    0    0    0    0    0    0    0    0    0    0;
    921    40    4.88109576    25    -20    1.045    100    1    42    8.4    0    0    0    0    0    0    0    0    0    0    0;
    1255    15.61    -24.36    26.1    -24.36    1.046    100    1    87    17.4    0    0    0    0    0    0    0    0    0    0    0;
    169    8    2.9905442    8.3    -8.3    1.065    100    1    8.3    1.66    0    0    0    0    0    0    0    0    0    0    0;
    448    0.85    0    0    0    1.04    100    1    4    0    0    0    0    0    0    0    0    0    0    0    0;
    241    2.6    1.37192185    5    -5    1.011    100    1    13    2.6    0    0    0    0    0    0    0    0    0    0    0;
    241    2.6    1.37192185    5    -5    1.011    100    1    13    2.6    0    0    0    0    0    0    0    0    0    0    0;
    241    2.6    1.37192185    5    -5    1.011    100    1    13    2.6    0    0    0    0    0    0    0    0    0    0    0;
    241    2.6    1.37192185    5    -5    1.011    100    1    13    2.6    0    0    0    0    0    0    0    0    0    0    0;
    270    48    1.47371852    27    -9    1.029    100    1    50    10    0    0    0    0    0    0    0    0    0    0    0;
    885    0.29    0    0    0    1.029    100    1    8    1.6    0    0    0    0    0    0    0    0    0    0    0;
    885    0.29    0    0    0    1.029    100    1    8    1.6    0    0    0    0    0    0    0    0    0    0    0;
    876    -1.22    0    0    0    1.04    100    1    54    10.8    0    0    0    0    0    0    0    0    0    0    0;
    46    28.2016509    -4    10    -4    1.038    100    1    30    6    0    0    0    0    0    0    0    0    0    0    0;
    803    13    -5.56    4.63    -5.56    1.036    100    1    13.8    2.76    0    0    0    0    0    0    0    0    0    0    0;
    356    11.82    -11.59    12.42    -11.59    1.047    100    1    41.4    8.28    0    0    0    0    0    0    0    0    0    0    0;
    100    26    7.64329606    59    -26    1.036    100    1    130    26    0    0    0    0    0    0    0    0    0    0    0;
    707    20    -3.36598961    8    -8    1.05    100    1    21    4.2    0    0    0    0    0    0    0    0    0    0    0;
    973    0    0    0    0    1.039    100    0    0    -8    0    0    0    0    0    0    0    0    0    0    0;
    973    51    -10    17    -10    1.039    100    1    53    10.6    0    0    0    0    0    0    0    0    0    0    0;
    1118    2.77    0    0    0    1.03    100    1    55    11    0    0    0    0    0    0    0    0    0    0    0;
    897    17.92    -2.94860204    10    -3    1.027    100    1    27    5.4    0    0    0    0    0    0    0    0    0    0    0;
    897    17.92    -2.94860204    10    -3    1.027    100    1    27    5.4    0    0    0    0    0    0    0    0    0    0    0;
    58    0    0    2    1.9    1.037    100    0    6    1.2    0    0    0    0    0    0    0    0    0    0    0;
    82    1.3    0    0    0    1.025    100    1    25.3    5.06    0    0    0    0    0    0    0    0    0    0    0;
    474    13.22    -10.0487072    10    -13    1.036    100    1    52    10.4    0    0    0    0    0    0    0    0    0    0    0;
    1221    11.6    5.07771059    35    -35    1.056    100    1    58    11.6    0    0    0    0    0    0    0    0    0    0    0;
    355    59    -9.93602069    40    -40    1.05    100    1    62    12.4    0    0    0    0    0    0    0    0    0    0    0;
    471    0.91    1    1    0    1.037    100    1    78    15.6    0    0    0    0    0    0    0    0    0    0    0;
    1321    10    1    1    0.9    1.039    100    1    11    2.2    0    0    0    0    0    0    0    0    0    0    0;
    1321    2    0.1    0.1    -0.1    1.039    100    1    2.5    0    0    0    0    0    0    0    0    0    0    0    0;
    1829    0.16    3.7715541    8    -8    1.022    100    1    23.5    4.7    0    0    0    0    0    0    0    0    0    0    0;
    1005    37    -19    19    -19    1.02    100    1    39    7.8    0    0    0    0    0    0    0    0    0    0    0;
    14    2.38    0    0    0    1.029    100    1    27.6    5.52    0    0    0    0    0    0    0    0    0    0    0;
    14    0.64    0    0    0    1.029    100    1    24    4.8    0    0    0    0    0    0    0    0    0    0    0;
    1628    200    -60.03674    155.3    -217.55    0.95    100    1    670    200    0    0    0    0    0    0    0    0    0    0    0;
    1629    450.03    -42.5893423    231.39    -190.58    0.95    100    1    700    140    0    0    0    0    0    0    0    0    0    0    0;
    1844    26    -15.38    24.62    -15.38    0.885    100    1    27    5.4    0    0    0    0    0    0    0    0    0    0    0;
    1630    83    9.40205648    43.86    -8.5    0.928    100    1    86    17.2    0    0    0    0    0    0    0    0    0    0    0;
    1631    9.8    3.34004861    22.19    -9.73    0.93    100    1    49    9.8    0    0    0    0    0    0    0    0    0    0    0;
    1846    30    -1.14162386    8.36    -8.36    1.034    100    1    32    6.4    0    0    0    0    0    0    0    0    0    0    0;
    1632    30    -1.14162386    8.36    -8.36    1.034    100    1    32    6.4    0    0    0    0    0    0    0    0    0    0    0;
    1847    30    -1.1442682    8.15    -8.57    1.034    100    1    32    6.4    0    0    0    0    0    0    0    0    0    0    0;
    1848    30    -1.1442682    8.15    -8.57    1.034    100    1    32    6.4    0    0    0    0    0    0    0    0    0    0    0;
    1852    88    16.7450043    54.57    -35.43    1.01    100    1    92    18.4    0    0    0    0    0    0    0    0    0    0    0;
    1854    88    29.061881    56.48    -33.52    1.031    100    1    92    18.4    0    0    0    0    0    0    0    0    0    0    0;
    1633    912    56.7104181    421.39    -376.62    1    100    1    945.08    255.07    0    0    0    0    0    0    0    0    0    0    0;
    1634    944    52.7127835    428.83    -369.21    0.999    100    1    978.04    288.05    0    0    0    0    0    0    0    0    0    0    0;
    1635    942    52.4217362    428.07    -369.92    0.999    100    1    976.08    256.08    0    0    0    0    0    0    0    0    0    0    0;
    1636    910    56.6276334    420.86    -377.13    1    100    1    943.08    253.07    0    0    0    0    0    0    0    0    0    0    0;
    1637    156    -8.40037612    153.03    -90.23    0.954    100    1    252    156    0    0    0    0    0    0    0    0    0    0    0;
    1638    154    -8.3493905    152.44    -90.81    0.954    100    1    250    154    0    0    0    0    0    0    0    0    0    0    0;
    1639    154    -2.14109225    105.68    -58.28    0.977    100    1    250    154    0    0    0    0    0    0    0    0    0    0    0;
    1640    122    -16.0100248    228.81    -159.91    0.983    100    1    305    122    0    0    0    0    0    0    0    0    0    0    0;
    1641    89    -2.70422144    94.32    -74.64    0.986    100    1    155    89    0    0    0    0    0    0    0    0    0    0    0;
    1642    11.6    -3.3128469    21.65    -18.77    0.988    100    1    58    11.6    0    0    0    0    0    0    0    0    0    0    0;
    1643    37.93    -1.76658226    16.01    -10.66    0.988    100    1    58    11.6    0    0    0    0    0    0    0    0    0    0    0;
    1855    11.6    -3.3128469    21.47    -18.95    0.988    100    1    58    11.6    0    0    0    0    0    0    0    0    0    0    0;
    1644    38.05    -1.75823513    16.05    -10.62    0.988    100    1    58    11.6    0    0    0    0    0    0    0    0    0    0    0;
    1645    37.39    -1.80381654    15.81    -10.86    0.988    100    1    58    11.6    0    0    0    0    0    0    0    0    0    0    0;
    1646    133    9.75167777    146.45    -90.18    0.95    100    1    263    133    0    0    0    0    0    0    0    0    0    0    0;
    1647    43    12.0244427    50.67    -38.09    1.045    100    1    44.96    8.99    0    0    0    0    0    0    0    0    0    0    0;
    1861    30    2.6264527    19.75    -16.25    1.048    100    1    32    6.4    0    0    0    0    0    0    0    0    0    0    0;
    1648    903    121.890667    530.99    -158.23    0.963    100    1    936.29    266.29    0    0    0    0    0    0    0    0    0    0    0;
    1649    910    19.5823092    533.69    -156.07    0.946    100    1    942.82    272.82    0    0    0    0    0    0    0    0    0    0    0;
    1650    892    130.279349    537.68    -152.82    0.964    100    1    924.28    274.28    0    0    0    0    0    0    0    0    0    0    0;
    1651    890    19.3928713    529.89    -160.89    0.946    100    1    922.8    272.8    0    0    0    0    0    0    0    0    0    0    0;
    1652    318    -95.9087232    681.04    -153    0.945    100    1    1308    318    0    0    0    0    0    0    0    0    0    0    0;
    1862    318    -66.2255358    681.03    -153    0.948    100    1    1308    318    0    0    0    0    0    0    0    0    0    0    0;
    1653    33    -0.958815749    6.08    -1.92    1.029    100    1    35    7    0    0    0    0    0    0    0    0    0    0    0;
    1654    33    -0.958815749    6.21    -1.79    1.029    100    1    35    7    0    0    0    0    0    0    0    0    0    0    0;
    1655    33    -0.958815749    6.21    -1.79    1.029    100    1    35    7    0    0    0    0    0    0    0    0    0    0    0;
    1656    33    -0.958815749    6.11    -1.89    1.029    100    1    35    7    0    0    0    0    0    0    0    0    0    0    0;
    1657    33    -0.958815749    6.11    -1.89    1.029    100    1    35    7    0    0    0    0    0    0    0    0    0    0    0;
    1658    33    -0.958815749    6.11    -1.89    1.029    100    1    35    7    0    0    0    0    0    0    0    0    0    0    0;
    1863    35    1.32216382    18.45    -13.16    0.979    100    1    36.97    7.39    0    0    0    0    0    0    0    0    0    0    0;
    1659    35    1.32216382    18.45    -13.16    0.979    100    1    36.97    7.39    0    0    0    0    0    0    0    0    0    0    0;
    1660    35    1.32216382    18.45    -11.35    0.979    100    1    36.97    7.39    0    0    0    0    0    0    0    0    0    0    0;
    1661    35    1.32216382    18.11    -11.7    0.979    100    1    36.97    7.39    0    0    0    0    0    0    0    0    0    0    0;
    1662    35    1.31942598    18.21    -13.41    0.978    100    1    36.97    7.39    0    0    0    0    0    0    0    0    0    0    0;
    1663    35    1.31942598    18.55    -13.05    0.978    100    1    36.97    7.39    0    0    0    0    0    0    0    0    0    0    0;
    1865    19    -1.36945821    12.32    -7.68    0.942    100    1    20    4    0    0    0    0    0    0    0    0    0    0    0;
    1866    29    1.16933696    17.85    -13.79    0.978    100    1    30.98    6.2    0    0    0    0    0    0    0    0    0    0    0;
    1664    29    1.16933696    17.85    -13.79    0.978    100    1    30.98    6.2    0    0    0    0    0    0    0    0    0    0    0;
    1665    29    1.16933696    18.01    -13.62    0.978    100    1    30.98    6.2    0    0    0    0    0    0    0    0    0    0    0;
    1867    29    1.16933696    18.01    -13.62    0.978    100    1    30.98    6.2    0    0    0    0    0    0    0    0    0    0    0;
    1666    29    1.19952184    17.89    -13.75    0.979    100    1    30.98    6.2    0    0    0    0    0    0    0    0    0    0    0;
    1868    29    1.19952184    17.74    -13.91    0.979    100    1    30.98    6.2    0    0    0    0    0    0    0    0    0    0    0;
    1667    1283    11.588075    656.06    -184.89    0.947    100    1    1330    337    0    0    0    0    0    0    0    0    0    0    0;
    1668    1114.28    18.8638266    656.92    -183.9    0.952    100    1    1360    367    0    0    0    0    0    0    0    0    0    0    0;
    1669    1088.81    14.8942098    648.03    -192.8    0.953    100    1    1360    367    0    0    0    0    0    0    0    0    0    0    0;
    1670    1.45    -75.8244085    281.46    -103.91    0.916    100    1    1.5    1.4    0    0    0    0    0    0    0    0    0    0    0;
    1873    48    47.4097043    94.03    -45.97    1.003    100    1    240    48    0    0    0    0    0    0    0    0    0    0    0;
    1874    48    47.4097043    95.11    -44.89    1.003    100    1    240    48    0    0    0    0    0    0    0    0    0    0    0;
    1671    910    -0.351737172    524.6    -107.2    0.95    100    1    942.72    232.72    0    0    0    0    0    0    0    0    0    0    0;
    1673    920    -0.170434467    511.64    -99.08    0.95    100    1    953.74    243.74    0    0    0    0    0    0    0    0    0    0    0;
    1674    919    -7.63380601    555.41    -99.32    0.949    100    1    952.74    242.74    0    0    0    0    0    0    0    0    0    0    0;
    1675    598.27    -33.8357834    682.28    -126.36    0.944    100    1    1503    403    0    0    0    0    0    0    0    0    0    0    0;
    1676    505.8    2.43447245    687.17    -121.66    0.95    100    1    1503    403    0    0    0    0    0    0    0    0    0    0    0;
    1875    1446    52.2629877    409.45    -352.29    0.973    100    1    1498    398    0    0    0    0    0    0    0    0    0    0    0;
    1677    1446    31.6297954    409.42    -352.33    0.971    100    1    1498    398    0    0    0    0    0    0    0    0    0    0    0;
    2022    15    20.8207141    51.88    -38.44    1.077    100    1    75    15    0    0    0    0    0    0    0    0    0    0    0;
    1876    15    20.8207141    51.88    -38.44    1.077    100    1    75    15    0    0    0    0    0    0    0    0    0    0    0;
    1877    15    20.8207141    51.88    -38.44    1.077    100    1    75    15    0    0    0    0    0    0    0    0    0    0    0;
    1878    15    20.8207141    51.88    -38.44    1.077    100    1    75    15    0    0    0    0    0    0    0    0    0    0    0;
    1678    91    0.788607925    104.12    -61.4    0.957    100    1    95    8.5    0    0    0    0    0    0    0    0    0    0    0;
    1679    91    0.78807447    103.94    -61.58    0.957    100    1    95    8.5    0    0    0    0    0    0    0    0    0    0    0;
    1680    4.2    -6.62545725    86.67    -10.65    0.961    100    1    148.2    4.2    0    0    0    0    0    0    0    0    0    0    0;
    1681    180    -3.04192267    220.22    -59.17    0.95    100    1    685    180    0    0    0    0    0    0    0    0    0    0    0;
    1682    588    -54.1550285    330.28    -165.24    0.928    100    1    610    310    0    0    0    0    0    0    0    0    0    0    0;
    1683    588    -45.2352165    297.67    -191.83    0.933    100    1    610    310    0    0    0    0    0    0    0    0    0    0    0;
    1684    205    -43.1371465    254.82    -293.65    0.954    100    1    700    205    0    0    0    0    0    0    0    0    0    0    0;
    1881    48    -1.56056094    15.6    -13.8    0.957    100    1    50    10    0    0    0    0    0    0    0    0    0    0    0;
    1882    48    -1.56056094    15.2    -14.2    0.957    100    1    50    10    0    0    0    0    0    0    0    0    0    0    0;
    1685    48    -1.56056094    15.81    -13.6    0.957    100    1    50    10    0    0    0    0    0    0    0    0    0    0    0;
    1883    48    -1.56056094    15.81    -13.6    0.957    100    1    50    10    0    0    0    0    0    0    0    0    0    0    0;
    1884    48    -1.56056094    15.81    -13.6    0.957    100    1    50    10    0    0    0    0    0    0    0    0    0    0    0;
    1885    48    -1.56056094    15.6    -13.8    0.957    100    1    50    10    0    0    0    0    0    0    0    0    0    0    0;
    1686    965    119.998178    532.91    -90.14    0.972    100    1    1000    280    0    0    0    0    0    0    0    0    0    0    0;
    1687    965    127.394748    535.45    -87.61    0.973    100    1    1000    280    0    0    0    0    0    0    0    0    0    0    0;
    1688    965    134.8017    567.71    -88.3    0.974    100    1    1000    280    0    0    0    0    0    0    0    0    0    0    0;
    1689    0    0    559.16    -96.85    0.964    100    0    930    280    0    0    0    0    0    0    0    0    0    0    0;
    1888    55    -0.783669188    17.35    -17.35    0.983    100    1    57    11.4    0    0    0    0    0    0    0    0    0    0    0;
    1690    420.09    14.5991577    219.77    -155.72    0.922    100    1    451    239    0    0    0    0    0    0    0    0    0    0    0;
    1691    21    -3.97034546    51.25    -10.63    0.95    100    1    63    21    0    0    0    0    0    0    0    0    0    0    0;
    1692    248.8    -16.278892    258.1    -182.18    0.99    100    1    433.8    248.8    0    0    0    0    0    0    0    0    0    0    0;
    1693    81.81    8.89799662    71.21    -44.25    0.95    100    1    168.17    81.81    0    0    0    0    0    0    0    0    0    0    0;
    1694    82.28    8.92255956    73.34    -37.69    0.95    100    1    168.6    82.28    0    0    0    0    0    0    0    0    0    0    0;
    1695    53.91    14.5062011    113.53    -43.7    0.95    100    1    248.21    53.91    0    0    0    0    0    0    0    0    0    0    0;
    1696    43.97    15.1446511    100.92    -59.36    0.95    100    1    238.09    43.97    0    0    0    0    0    0    0    0    0    0    0;
    1697    229.69    -17.5887573    525.14    -88.61    0.95    100    1    919.69    229.69    0    0    0    0    0    0    0    0    0    0    0;
    1698    229.69    -17.5887573    525.14    -88.61    0.95    100    1    919.69    229.69    0    0    0    0    0    0    0    0    0    0    0;
    1699    236.69    -17.4073399    526.77    -86.99    0.95    100    1    926.69    236.69    0    0    0    0    0    0    0    0    0    0    0;
    1700    251.69    -18.1056376    530.29    -83.48    0.95    100    1    941.69    251.69    0    0    0    0    0    0    0    0    0    0    0;
    1701    30    -8.95102244    10.32    -9.68    0.96    100    1    32    6.4    0    0    0    0    0    0    0    0    0    0    0;
    1702    38    0.386897734    19.22    -17.67    0.982    100    1    39.88    7.98    0    0    0    0    0    0    0    0    0    0    0;
    1703    38    0.386897734    19.34    -17.74    0.982    100    1    39.88    7.98    0    0    0    0    0    0    0    0    0    0    0;
    1889    38    0.386897734    19.24    -17.66    0.982    100    1    39.88    7.98    0    0    0    0    0    0    0    0    0    0    0;
    1704    1332    169.373821    398.39    -396.86    0.988    100    1    1380    340    0    0    0    0    0    0    0    0    0    0    0;
    1705    1332    153.009951    371.08    -424.16    0.985    100    1    1380    340    0    0    0    0    0    0    0    0    0    0    0;
    1890    4.8    0.085110336    5.35    -2.57    0.964    100    1    24    4.8    0    0    0    0    0    0    0    0    0    0    0;
    1891    4.8    0.085110336    5.48    -2.43    0.964    100    1    24    4.8    0    0    0    0    0    0    0    0    0    0    0;
    1892    4.86    0.0867051344    5    -2.93    0.964    100    1    24    4.8    0    0    0    0    0    0    0    0    0    0    0;
    1706    12.83    0.0996349715    5.29    -2.63    0.962    100    1    24    4.8    0    0    0    0    0    0    0    0    0    0    0;
    1707    9.2    0.0637793735    10    -4.98    0.975    100    1    23.99    4.8    0    0    0    0    0    0    0    0    0    0    0;
    2026    4.8    0.110998496    8.26    -6.79    0.976    100    1    23.99    4.8    0    0    0    0    0    0    0    0    0    0    0;
    1898    4.8    0.110998496    10.17    -4.8    0.976    100    1    23.99    4.8    0    0    0    0    0    0    0    0    0    0    0;
    1708    9.45    1.81    1.81    1.8    0.984    100    1    23.99    4.8    0    0    0    0    0    0    0    0    0    0    0;
    1709    9.2    0.0637793735    10.16    -4.81    0.975    100    1    23.99    4.8    0    0    0    0    0    0    0    0    0    0    0;
    1710    27    0.768081122    12.23    -7.55    0.984    100    1    28.98    5.8    0    0    0    0    0    0    0    0    0    0    0;
    1711    27    0.768081122    12.31    -7.46    0.984    100    1    28.98    5.8    0    0    0    0    0    0    0    0    0    0    0;
    1712    1262    -13.0746891    615.09    -439.22    0.981    100    1    1308    288    0    0    0    0    0    0    0    0    0    0    0;
    1713    1262    -23.772287    614.63    -439.67    0.98    100    1    1308    288    0    0    0    0    0    0    0    0    0    0    0;
    1714    442    16.3046203    255.9    -84.1    0.95    100    1    458.26    89.26    0    0    0    0    0    0    0    0    0    0    0;
    1715    309.71    83.0474246    524.88    -98.23    0.95    100    1    947    237    0    0    0    0    0    0    0    0    0    0    0;
    1716    313.55    83.207471    528.27    -94.91    0.95    100    1    947    267    0    0    0    0    0    0    0    0    0    0    0;
    1717    349.48    50.6573411    529.5    -93.67    0.945    100    1    947    237    0    0    0    0    0    0    0    0    0    0    0;
    1718    328.64    70.1458707    528.59    -94.53    0.948    100    1    947    237    0    0    0    0    0    0    0    0    0    0    0;
    1719    311.18    83.0937348    529.53    -93.65    0.95    100    1    947    237    0    0    0    0    0    0    0    0    0    0    0;
    1720    237    80.6225783    504.13    -118.98    0.95    100    1    947    237    0    0    0    0    0    0    0    0    0    0    0;
    1721    125    4.44172767    104.81    -37.31    0.95    100    1    240    125    0    0    0    0    0    0    0    0    0    0    0;
    1906    33.88    9.67220903    69.06    -76.42    0.997    100    1    169.4    33.88    0    0    0    0    0    0    0    0    0    0    0;
    1907    33.88    9.67220903    69.08    -76.5    0.997    100    1    169.4    33.88    0    0    0    0    0    0    0    0    0    0    0;
    1908    33.88    8.45662333    68.92    -76.49    0.996    100    1    169.4    33.88    0    0    0    0    0    0    0    0    0    0    0;
    1909    33.88    8.45662333    68.97    -76.69    0.996    100    1    169.4    33.88    0    0    0    0    0    0    0    0    0    0    0;
    1910    33.88    9.67220903    69.1    -76.58    0.997    100    1    169.4    33.88    0    0    0    0    0    0    0    0    0    0    0;
    1911    33.88    9.67220903    69.1    -76.54    0.997    100    1    169.4    33.88    0    0    0    0    0    0    0    0    0    0    0;
    1912    33.88    8.45662333    68.67    -76.85    0.996    100    1    169.4    33.88    0    0    0    0    0    0    0    0    0    0    0;
    1913    33.88    8.45662333    68.69    -76.92    0.996    100    1    169.4    33.88    0    0    0    0    0    0    0    0    0    0    0;
    1722    265.51    -19.8776711    272.9    -127.1    0.95    100    1    456.8    216.8    0    0    0    0    0    0    0    0    0    0    0;
    1723    130    -0.663902919    159.71    -80.29    0.969    100    1    260    130    0    0    0    0    0    0    0    0    0    0    0;
    1724    0    0    198.66    -190.41    0.967    100    0    585    250    0    0    0    0    0    0    0    0    0    0    0;
    1725    250    1.83848643    199.31    -189.68    0.951    100    1    585    250    0    0    0    0    0    0    0    0    0    0    0;
    1919    19    0.280892265    20.64    -19.15    1.027    100    1    19.98    4    0    0    0    0    0    0    0    0    0    0    0;
    1920    23    0.186130855    20.43    -19.38    1.026    100    1    23.98    4.8    0    0    0    0    0    0    0    0    0    0    0;
    1921    4.8    0.471540094    21    -18.66    1.029    100    1    23.98    4.8    0    0    0    0    0    0    0    0    0    0    0;
    1922    4.8    0.471540094    20.73    -19    1.029    100    1    23.98    4.8    0    0    0    0    0    0    0    0    0    0    0;
    1923    4.8    0.434235045    21.26    -18.37    1.029    100    1    23.98    4.8    0    0    0    0    0    0    0    0    0    0    0;
    1924    4.8    0.434295996    21.26    -18.37    1.029    100    1    23.98    4.8    0    0    0    0    0    0    0    0    0    0    0;
    1726    33    -0.0502771001    9.31    -8.35    0.979    100    1    35    7    0    0    0    0    0    0    0    0    0    0    0;
    1727    33    -0.0502771001    9.12    -8.54    0.979    100    1    35    7    0    0    0    0    0    0    0    0    0    0    0;
    1728    33    -0.35919635    10.16    -13.09    0.978    100    1    35    7    0    0    0    0    0    0    0    0    0    0    0;
    1928    33    -0.0502771001    9.31    -8.35    0.979    100    1    35    7    0    0    0    0    0    0    0    0    0    0    0;
    1729    120    -14.7591723    104.52    -144.76    0.943    100    1    235    120    0    0    0    0    0    0    0    0    0    0    0;
    1931    70    15.3770029    47.31    -36.19    1.024    100    1    73    14.6    0    0    0    0    0    0    0    0    0    0    0;
    1932    66    17.8938995    51.14    -32.55    1.033    100    1    69    13.8    0    0    0    0    0    0    0    0    0    0    0;
...
];

%% branch data
%    fbus    tbus    r    x    b    rateA    rateB    rateC    ratio    angle    status    angmin    angmax    Pf    Qf    Pt    Qt
mpc.branch = [
    1833    1    0.002607    0.017462    0.0324    540    540    540    1    0    1    0    0    5.8022    -9.2287    -5.8000    5.8000;
    29    2    2.1e-05    0.000125    0.1386    737    737    737    1    0    1    0    0    200.0000    -69.5727    -199.9917    54.2798;
    675    2    0.000145    0.001877    0.0635    2487    2487    2487    1    0    1    0    0    -377.3784    11.8940    377.5654    -16.5015;
    1271    2    0.000319    0.003234    0.0838    1841    1841    1841    1    0    1    0    0    -272.1709    103.1425    272.4167    -109.9486;
    30    2    2.1e-05    0.000125    0.1386    737    737    737    1    0    1    0    0    450.0300    -87.2772    -449.9904    72.1702;
    142    3    0.006163    0.041067    0.0759    446    446    446    1    0    1    0    0    41.6971    -26.6015    -41.5687    19.2221;
    677    3    0.000652    0.004369    0.0081    558    558    558    1    0    1    0    0    100.9923    5.3459    -100.9313    -5.8221;
    1048    4    0.009733    0.034089    0.0185    0    0    0    1    0    1    0    0    79.8300    25.6542    -79.2386    -25.7101;
    101    5    0.000277    0.002015    0.003    288    288    288    1    0    1    0    0    -77.2683    -5.3020    77.2831    5.0712;
    286    6    0.00881    0.033995    0.0607    289    289    289    1    0    1    0    0    -123.6829    8.7667    124.9093    -10.8159;
    329    6    0.004642    0.019832    0.0354    255    255    255    1    0    1    0    0    -34.8951    -1.2736    34.9455    -2.4875;
    737    5    0.008861    0.03506    0.0623    288    288    288    1    0    1    0    0    -86.2289    2.3648    86.8225    -6.9997;
    760    5    0.006993    0.032869    0.0557    255    255    255    1    0    1    0    0    -10.5443    3.9735    10.5543    -10.2128;
    1330    6    0.002173    0.008731    0.0152    0    0    0    1    0    1    0    0    -42.6000    -12.8000    42.6380    11.2458;
    1350    5    0.00077    0.003121    0.0051    0    0    0    1    0    1    0    0    18.6000    13.6000    -18.5963    -14.1602;
    1523    6    0.004109    0.016138    0.0284    288    288    288    1    0    1    0    0    -49.6612    9.1093    49.7555    -11.9322;
    102    8    8.3e-05    0.000907    0.0202    1034    1034    1034    1    0    1    0    0    88.0000    16.9421    -87.9940    -19.1343;
    316    8    0.000552    0.006726    0.0939    1786    1786    1786    1    0    1    0    0    -206.7637    296.1979    207.4027    -299.0819;
    623    8    0.000512    0.008012    0.2455    2462    2462    2462    1    0    1    0    0    774.3203    -119.5205    -771.4897    136.5360;
    882    8    0.001107    0.00918    0.1906    1644    1644    1644    1    0    1    0    0    -304.8185    -4.1737    305.7446    -9.3852;
    103    7    6.2e-05    0.000741    0.0173    1095    1095    1095    1    0    1    0    0    88.0000    4.9456    -87.9957    -6.8151;
    623    8    0.000512    0.008019    0.2455    2462    2462    2462    1    0    1    0    0    773.6530    -119.3854    -770.8273    136.3625;
    623    7    0.001153    0.013123    0.1841    1433    1433    1433    1    0    1    0    0    304.5856    -52.9949    -303.5983    43.8397;
    113    9    0.000158    0.000672    0.0719    331    331    331    1    0    1    0    0    5.8001    -8.4138    -5.8000    0.5196;
    1134    9    4.5e-05    8.9e-05    0.002    268    268    268    1    0    1    0    0    -5.8000    0.3000    5.8000    -0.5196;
    346    10    0.00478    0.028622    0.0547    455    455    455    1    0    1    0    0    56.6077    3.4807    -56.4666    -8.6261;
    345    10    0.00478    0.028583    0.0547    455    455    455    1    0    1    0    0    92.7075    2.5137    -92.3334    -6.2739;
    106    11    0.000257    0.000514    0.0294    0    0    0    1    0    1    0    0    25.6016    1.8034    -25.6000    -5.0000;
    758    12    0.000257    0.002153    0.2147    452    452    452    1    0    1    0    0    -90.3554    -22.4413    90.3758    0.1615;
    962    12    0.000277    0.000869    0.0931    481    481    481    1    0    1    0    0    129.5203    -0.7423    -129.4758    -8.8615;
    955    13    0.000237    0.00083    0.1863    268    268    268    1    0    1    0    0    52.8426    -1.4451    -52.8363    -18.8103;
    995    13    0.000178    0.000612    0.1377    268    268    268    1    0    1    0    0    17.6643    -16.5926    -17.6637    1.6103;
    39    14    0.002568    0.011753    0.0203    424    424    424    1    0    1    0    0    36.1225    -8.8811    -36.0893    6.8835;
    1428    14    0.002568    0.011615    0.0228    290    290    290    1    0    1    0    0    -3.1091    0.2707    3.1093    -2.6835;
    1054    16    9.9e-05    0.00077    0.078    379    379    379    1    0    1    0    0    -87.4932    -1.6759    87.5000    -6.9132;
    1054    15    9.9e-05    0.00077    0.077    379    379    379    1    0    1    0    0    -87.4932    -1.5656    87.5000    -6.9127;
    1428    17    0.000514    0.003437    0.0061    290    290    290    1    0    1    0    0    3.1091    -0.2707    -3.1090    -0.3749;
    1432    17    0.005476    0.036879    0.1255    522    522    522    1    0    1    0    0    -118.4613    1.8555    119.1967    -10.1376;
    39    17    0.000514    0.003457    0.0061    418    418    418    1    0    1    0    0    139.8852    -22.9028    -139.7877    22.9126;
    869    18    0.003477    0.01118    0.0187    304    304    304    1    0    1    0    0    -76.7155    8.3313    76.9087    -9.7228;
    1089    18    0.000612    0.003121    0.0152    270    270    270    1    0    1    0    0    82.8490    -15.9561    -82.8087    14.5228;
    1164    20    2.4e-05    0.000144    0.0213    701    701    701    1    0    1    0    0    6.9000    -1.4857    -6.9000    -0.8000;
    1164    19    7.1e-05    0.000162    0.0162    251    251    251    1    0    1    0    0    34.0008    1.9633    -34.0000    -3.7000;
    972    21    0.000257    0.001165    0.002    405    405    405    1    0    1    0    0    9.2022    -29.3086    -9.2000    29.1000;
    476    22    0.005709    0.037926    0.0688    492    492    492    1    0    1    0    0    -0.3768    -10.4203    0.3792    2.9374;
    1497    22    0.001758    0.011654    0.0208    492    492    492    1    0    1    0    0    68.1538    -2.4423    -68.0792    0.6626;
    69    23    0.001383    0.009462    0.0172    463    463    463    1    0    1    0    0    84.4943    9.8612    -84.3985    -11.0037;
    446    23    0.00156    0.006933    0.0121    432    432    432    1    0    1    0    0    19.5461    -16.3475    -19.5367    15.1282;
    605    23    0.006376    0.028733    0.0506    432    432    432    1    0    1    0    0    -6.2539    -16.8812    6.2688    11.6933;
    987    23    0.00158    0.010627    0.0192    481    481    481    1    0    1    0    0    -72.1851    11.6618    72.2664    -13.1179;
    845    25    0.001086    0.003536    0.3766    506    506    506    1    0    1    0    0    32.0134    -39.4393    -32.0000    -2.3000;
    845    25    0.001086    0.003536    0.3766    506    506    506    1    0    1    0    0    32.0134    -39.4393    -32.0000    -2.3000;
    123    27    0.004741    0.020385    0.0334    0    0    0    1    0    1    0    0    -57.8433    29.9356    58.0398    -32.5843;
    1479    27    0.009027    0.048869    0.084    351    351    351    1    0    1    0    0    125.4822    8.5431    -124.1445    -10.1905;
    1500    27    0.003516    0.016257    0.0273    311    311    311    1    0    1    0    0    5.4965    1.0837    -5.4953    -3.9252;
    289    28    0.000514    0.003417    0.0278    452    452    452    1    0    1    0    0    -40.9844    1.9745    40.9925    -4.9118;
    307    28    0.001084    0.007198    0.0132    448    448    448    1    0    1    0    0    101.4908    -10.4265    -101.3862    9.7006;
    1451    28    0.000523    0.002436    0.0167    348    348    348    1    0    1    0    0    -65.4285    11.2654    65.4500    -12.9620;
    289    28    0.000514    0.003457    0.0203    356    356    356    1    0    1    0    0    -40.5263    2.2697    40.5342    -4.4006;
    307    28    0.001086    0.007249    0.0132    540    540    540    1    0    1    0    0    100.7958    -10.2820    -100.6924    9.5514;
    1450    28    0.000553    0.002469    0.0157    405    405    405    1    0    1    0    0    -50.1136    11.7327    50.1274    -13.3608;
    307    28    0.001086    0.007269    0.0132    540    540    540    1    0    1    0    0    100.5283    -10.2157    -100.4255    9.4833;
    842    31    0.001837    0.011694    0.0759    467    467    467    1    0    1    0    0    -70.0071    -41.9735    70.1139    34.3455;
    960    31    0.001067    0.007131    0.0132    413    413    413    1    0    1    0    0    -4.8000    -0.9000    4.8002    -0.5509;
    1269    31    0.001284    0.008593    0.0152    541    541    541    1    0    1    0    0    14.9950    -17.7342    -14.9890    16.1035;
    1270    31    0.001284    0.008593    0.0162    541    541    541    1    0    1    0    0    40.6864    23.7249    -40.6601    -25.3360;
    1270    31    0.001284    0.008533    0.0162    541    541    541    1    0    1    0    0    40.9916    23.8521    -40.9650    -25.4620;
    212    33    0.000494    0.000928    0.0699    0    0    0    1    0    1    0    0    -14.6000    0.7000    14.6011    -8.1486;
    326    33    0.000184    0.00159    0.1661    422    422    422    1    0    1    0    0    -265.1001    45.1513    265.2263    -61.7714;
    1153    33    0.000198    0.001711    0.1711    385    385    385    1    0    1    0    0    180.3197    -41.5823    -180.2573    23.8867;
    1170    33    0.000751    0.003358    0.1534    385    385    385    1    0    1    0    0    168.6888    -58.7998    -168.4701    43.4333;
    343    34    0.000178    0.001047    0.1499    452    452    452    1    0    1    0    0    99.3585    -38.7365    -99.3408    22.5331;
    955    34    0.000316    0.002232    0.2774    452    452    452    1    0    1    0    0    -48.7328    5.1001    48.7408    -35.2331;
    1257    35    0.037227    0.106836    0.0328    0    0    0    1    0    1    0    0    70.7601    -5.8360    -69.0357    7.2904;
    1439    35    0.006089    0.020756    0.0067    0    0    0    1    0    1    0    0    -51.8734    9.2435    52.0357    -9.3904;
    846    36    0.000729    0.005118    0.0933    389    389    389    1    0    1    0    0    -32.6224    8.6917    32.6305    -19.1724;
    846    36    0.000755    0.005235    0.0909    419    419    419    1    0    1    0    0    -31.8614    8.5675    31.8694    -18.7784;
    228    37    0.001787    0.01946    0.4214    1579    1579    1579    1    0    1    0    0    722.8991    -100.5518    -714.4883    144.3603;
...